<additional>
  <!-- Inbound detectors -->
  <laneAreaDetector id="det_left_in_0"  lane="left_to_center_0"   pos="5" length="5" freq="1" file="det_counts.xml"/>
  <laneAreaDetector id="det_left_in_1"  lane="left_to_center_1"   pos="5" length="5" freq="1" file="det_counts.xml"/>

  <laneAreaDetector id="det_right_in_0" lane="right_to_center_0"  pos="5" length="5" freq="1" file="det_counts.xml"/>
  <laneAreaDetector id="det_right_in_1" lane="right_to_center_1"  pos="5" length="5" freq="1" file="det_counts.xml"/>

  <laneAreaDetector id="det_down_in_0"  lane="down_to_center_0"   pos="5" length="5" freq="1" file="det_counts.xml"/>
  <laneAreaDetector id="det_down_in_1"  lane="down_to_center_1"   pos="5" length="5" freq="1" file="det_counts.xml"/>

  <!-- Outbound detectors -->
  <laneAreaDetector id="det_left_out_0" lane="center_to_left_0"   pos="5" length="5" freq="1" file="det_counts.xml"/>
  <laneAreaDetector id="det_left_out_1" lane="center_to_left_1"   pos="5" length="5" freq="1" file="det_counts.xml"/>

  <laneAreaDetector id="det_right_out_0" lane="center_to_right_0"  pos="5" length="5" freq="1" file="det_counts.xml"/>
  <laneAreaDetector id="det_right_out_1" lane="center_to_right_1"  pos="5" length="5" freq="1" file="det_counts.xml"/>

  <laneAreaDetector id="det_down_out_0"  lane="center_to_down_0"   pos="5" length="5" freq="1" file="det_counts.xml"/>
  <laneAreaDetector id="det_down_out_1"  lane="center_to_down_1"   pos="5" length="5" freq="1" file="det_counts.xml"/>
</additional>

