<nodes>
    <!-- Horizontal Road -->
    <node id="left" x="0" y="0" type="priority"/>       <!-- Left side -->
    <node id="center" x="100" y="0" type="traffic_light"/>  <!-- Intersection center -->
    <node id="right" x="200" y="0" type="priority"/>    <!-- Right side -->
    
    <!-- Vertical Road (Down) -->
    <node id="down" x="100" y="-100" type="priority"/>  <!-- Downward exit -->
</nodes>
